<?xml version="1.0" encoding="UTF-8"?>
<configuration xmlns:xsi="http://www.w3.org/2001/XMLSchema-instance" xsi:noNamespaceSchemaLocation="http://sumo.dlr.de/xsd/sumoConfiguration.xsd">
    <net-file value="UC5_1.net.xml" />
    <step-length value="0.1" />
    <lanechange.duration value="2.5" />
    <ignore-route-errors value="true" />
    <step-method.ballistic value="true" />
    <no-step-log value="true" />
    <device.toc.ogNewSpaceHeadway value="5.0" />
    <device.toc.ogNewTimeHeadway value="100.0" />
    <device.toc.ogChangeRate value="1.0" />
    <device.toc.ogMaxDecel value="1.0" />
</configuration>
