<additional xmlns:xsi="http://www.w3.org/2001/XMLSchema-instance" xsi:noNamespaceSchemaLocation="http://sumo.dlr.de/xsd/additional_file.xsd">
    <vTypeDistribution id="vehCVToCOS">
        <vType accel="1.362" actionStepLength="0.100" carFollowModel="ACC" color="green" decel="2.024" emergencyDecel="9.000" id="vehCVToCOS0" lcAssertive="0.557" tau="1.901">
            <param key="has.toc.device" value="true"/>
            <param key="device.toc.manualType" value="vehLVOS"/>
            <param key="device.toc.automatedType" value="vehCVToCOS"/>
            <param key="device.toc.responseTime" value="0.000"/>
            <param key="device.toc.initialAwareness" value="0.350"/>
            <param key="device.toc.recoveryRate" value="0.374"/>
            <param key="device.toc.mrmDecel" value="3.000"/>
            <param key="device.toc.useColorScheme" value="true"/>
            <param key="device.toc.dynamicToCThreshold" value="10.000"/>
        </vType>
        <vType accel="1.035" actionStepLength="0.100" carFollowModel="ACC" color="green" decel="3.368" emergencyDecel="9.000" id="vehCVToCOS1" lcAssertive="0.434" tau="1.935">
            <param key="has.toc.device" value="true"/>
            <param key="device.toc.manualType" value="vehLVOS"/>
            <param key="device.toc.automatedType" value="vehCVToCOS"/>
            <param key="device.toc.responseTime" value="0.000"/>
            <param key="device.toc.initialAwareness" value="0.418"/>
            <param key="device.toc.recoveryRate" value="0.105"/>
            <param key="device.toc.mrmDecel" value="3.000"/>
            <param key="device.toc.useColorScheme" value="true"/>
            <param key="device.toc.dynamicToCThreshold" value="10.000"/>
        </vType>
        <vType accel="1.810" actionStepLength="0.100" carFollowModel="ACC" color="green" decel="2.568" emergencyDecel="9.000" id="vehCVToCOS2" lcAssertive="0.594" tau="1.944">
            <param key="has.toc.device" value="true"/>
            <param key="device.toc.manualType" value="vehLVOS"/>
            <param key="device.toc.automatedType" value="vehCVToCOS"/>
            <param key="device.toc.responseTime" value="0.000"/>
            <param key="device.toc.initialAwareness" value="0.832"/>
            <param key="device.toc.recoveryRate" value="0.331"/>
            <param key="device.toc.mrmDecel" value="3.000"/>
            <param key="device.toc.useColorScheme" value="true"/>
            <param key="device.toc.dynamicToCThreshold" value="10.000"/>
        </vType>
        <vType accel="1.643" actionStepLength="0.100" carFollowModel="ACC" color="green" decel="2.779" emergencyDecel="9.000" id="vehCVToCOS3" lcAssertive="0.587" tau="1.893">
            <param key="has.toc.device" value="true"/>
            <param key="device.toc.manualType" value="vehLVOS"/>
            <param key="device.toc.automatedType" value="vehCVToCOS"/>
            <param key="device.toc.responseTime" value="0.000"/>
            <param key="device.toc.initialAwareness" value="0.337"/>
            <param key="device.toc.recoveryRate" value="0.267"/>
            <param key="device.toc.mrmDecel" value="3.000"/>
            <param key="device.toc.useColorScheme" value="true"/>
            <param key="device.toc.dynamicToCThreshold" value="10.000"/>
        </vType>
        <vType accel="1.721" actionStepLength="0.100" carFollowModel="ACC" color="green" decel="3.978" emergencyDecel="9.000" id="vehCVToCOS4" lcAssertive="0.465" tau="1.808">
            <param key="has.toc.device" value="true"/>
            <param key="device.toc.manualType" value="vehLVOS"/>
            <param key="device.toc.automatedType" value="vehCVToCOS"/>
            <param key="device.toc.responseTime" value="0.000"/>
            <param key="device.toc.initialAwareness" value="0.285"/>
            <param key="device.toc.recoveryRate" value="0.252"/>
            <param key="device.toc.mrmDecel" value="3.000"/>
            <param key="device.toc.useColorScheme" value="true"/>
            <param key="device.toc.dynamicToCThreshold" value="10.000"/>
        </vType>
        <vType accel="1.333" actionStepLength="0.100" carFollowModel="ACC" color="green" decel="3.250" emergencyDecel="9.000" id="vehCVToCOS5" lcAssertive="0.426" tau="1.981">
            <param key="has.toc.device" value="true"/>
            <param key="device.toc.manualType" value="vehLVOS"/>
            <param key="device.toc.automatedType" value="vehCVToCOS"/>
            <param key="device.toc.responseTime" value="0.000"/>
            <param key="device.toc.initialAwareness" value="0.634"/>
            <param key="device.toc.recoveryRate" value="0.116"/>
            <param key="device.toc.mrmDecel" value="3.000"/>
            <param key="device.toc.useColorScheme" value="true"/>
            <param key="device.toc.dynamicToCThreshold" value="10.000"/>
        </vType>
        <vType accel="0.906" actionStepLength="0.100" carFollowModel="ACC" color="green" decel="2.435" emergencyDecel="9.000" id="vehCVToCOS6" lcAssertive="0.478" tau="1.865">
            <param key="has.toc.device" value="true"/>
            <param key="device.toc.manualType" value="vehLVOS"/>
            <param key="device.toc.automatedType" value="vehCVToCOS"/>
            <param key="device.toc.responseTime" value="0.000"/>
            <param key="device.toc.initialAwareness" value="0.895"/>
            <param key="device.toc.recoveryRate" value="0.078"/>
            <param key="device.toc.mrmDecel" value="3.000"/>
            <param key="device.toc.useColorScheme" value="true"/>
            <param key="device.toc.dynamicToCThreshold" value="10.000"/>
        </vType>
        <vType accel="1.247" actionStepLength="0.100" carFollowModel="ACC" color="green" decel="3.826" emergencyDecel="9.000" id="vehCVToCOS7" lcAssertive="0.404" tau="1.951">
            <param key="has.toc.device" value="true"/>
            <param key="device.toc.manualType" value="vehLVOS"/>
            <param key="device.toc.automatedType" value="vehCVToCOS"/>
            <param key="device.toc.responseTime" value="0.000"/>
            <param key="device.toc.initialAwareness" value="0.644"/>
            <param key="device.toc.recoveryRate" value="0.130"/>
            <param key="device.toc.mrmDecel" value="3.000"/>
            <param key="device.toc.useColorScheme" value="true"/>
            <param key="device.toc.dynamicToCThreshold" value="10.000"/>
        </vType>
        <vType accel="1.320" actionStepLength="0.100" carFollowModel="ACC" color="green" decel="2.866" emergencyDecel="9.000" id="vehCVToCOS8" lcAssertive="0.534" tau="1.994">
            <param key="has.toc.device" value="true"/>
            <param key="device.toc.manualType" value="vehLVOS"/>
            <param key="device.toc.automatedType" value="vehCVToCOS"/>
            <param key="device.toc.responseTime" value="0.000"/>
            <param key="device.toc.initialAwareness" value="0.447"/>
            <param key="device.toc.recoveryRate" value="0.229"/>
            <param key="device.toc.mrmDecel" value="3.000"/>
            <param key="device.toc.useColorScheme" value="true"/>
            <param key="device.toc.dynamicToCThreshold" value="10.000"/>
        </vType>
        <vType accel="0.984" actionStepLength="0.100" carFollowModel="ACC" color="green" decel="3.888" emergencyDecel="9.000" id="vehCVToCOS9" lcAssertive="0.543" tau="1.823">
            <param key="has.toc.device" value="true"/>
            <param key="device.toc.manualType" value="vehLVOS"/>
            <param key="device.toc.automatedType" value="vehCVToCOS"/>
            <param key="device.toc.responseTime" value="0.000"/>
            <param key="device.toc.initialAwareness" value="0.600"/>
            <param key="device.toc.recoveryRate" value="0.260"/>
            <param key="device.toc.mrmDecel" value="3.000"/>
            <param key="device.toc.useColorScheme" value="true"/>
            <param key="device.toc.dynamicToCThreshold" value="10.000"/>
        </vType>
        <vType accel="1.921" actionStepLength="0.100" carFollowModel="ACC" color="green" decel="2.070" emergencyDecel="9.000" id="vehCVToCOS10" lcAssertive="0.473" tau="1.852">
            <param key="has.toc.device" value="true"/>
            <param key="device.toc.manualType" value="vehLVOS"/>
            <param key="device.toc.automatedType" value="vehCVToCOS"/>
            <param key="device.toc.responseTime" value="0.000"/>
            <param key="device.toc.initialAwareness" value="0.933"/>
            <param key="device.toc.recoveryRate" value="0.049"/>
            <param key="device.toc.mrmDecel" value="3.000"/>
            <param key="device.toc.useColorScheme" value="true"/>
            <param key="device.toc.dynamicToCThreshold" value="10.000"/>
        </vType>
        <vType accel="1.969" actionStepLength="0.100" carFollowModel="ACC" color="green" decel="3.313" emergencyDecel="9.000" id="vehCVToCOS11" lcAssertive="0.479" tau="1.802">
            <param key="has.toc.device" value="true"/>
            <param key="device.toc.manualType" value="vehLVOS"/>
            <param key="device.toc.automatedType" value="vehCVToCOS"/>
            <param key="device.toc.responseTime" value="0.000"/>
            <param key="device.toc.initialAwareness" value="0.646"/>
            <param key="device.toc.recoveryRate" value="0.232"/>
            <param key="device.toc.mrmDecel" value="3.000"/>
            <param key="device.toc.useColorScheme" value="true"/>
            <param key="device.toc.dynamicToCThreshold" value="10.000"/>
        </vType>
        <vType accel="0.808" actionStepLength="0.100" carFollowModel="ACC" color="green" decel="3.866" emergencyDecel="9.000" id="vehCVToCOS12" lcAssertive="0.452" tau="1.975">
            <param key="has.toc.device" value="true"/>
            <param key="device.toc.manualType" value="vehLVOS"/>
            <param key="device.toc.automatedType" value="vehCVToCOS"/>
            <param key="device.toc.responseTime" value="0.000"/>
            <param key="device.toc.initialAwareness" value="0.573"/>
            <param key="device.toc.recoveryRate" value="0.273"/>
            <param key="device.toc.mrmDecel" value="3.000"/>
            <param key="device.toc.useColorScheme" value="true"/>
            <param key="device.toc.dynamicToCThreshold" value="10.000"/>
        </vType>
        <vType accel="1.904" actionStepLength="0.100" carFollowModel="ACC" color="green" decel="3.571" emergencyDecel="9.000" id="vehCVToCOS13" lcAssertive="0.537" tau="1.980">
            <param key="has.toc.device" value="true"/>
            <param key="device.toc.manualType" value="vehLVOS"/>
            <param key="device.toc.automatedType" value="vehCVToCOS"/>
            <param key="device.toc.responseTime" value="0.000"/>
            <param key="device.toc.initialAwareness" value="0.560"/>
            <param key="device.toc.recoveryRate" value="0.056"/>
            <param key="device.toc.mrmDecel" value="3.000"/>
            <param key="device.toc.useColorScheme" value="true"/>
            <param key="device.toc.dynamicToCThreshold" value="10.000"/>
        </vType>
        <vType accel="1.921" actionStepLength="0.100" carFollowModel="ACC" color="green" decel="3.539" emergencyDecel="9.000" id="vehCVToCOS14" lcAssertive="0.445" tau="1.950">
            <param key="has.toc.device" value="true"/>
            <param key="device.toc.manualType" value="vehLVOS"/>
            <param key="device.toc.automatedType" value="vehCVToCOS"/>
            <param key="device.toc.responseTime" value="0.000"/>
            <param key="device.toc.initialAwareness" value="0.629"/>
            <param key="device.toc.recoveryRate" value="0.090"/>
            <param key="device.toc.mrmDecel" value="3.000"/>
            <param key="device.toc.useColorScheme" value="true"/>
            <param key="device.toc.dynamicToCThreshold" value="10.000"/>
        </vType>
        <vType accel="1.214" actionStepLength="0.100" carFollowModel="ACC" color="green" decel="3.496" emergencyDecel="9.000" id="vehCVToCOS15" lcAssertive="0.487" tau="1.849">
            <param key="has.toc.device" value="true"/>
            <param key="device.toc.manualType" value="vehLVOS"/>
            <param key="device.toc.automatedType" value="vehCVToCOS"/>
            <param key="device.toc.responseTime" value="0.000"/>
            <param key="device.toc.initialAwareness" value="0.560"/>
            <param key="device.toc.recoveryRate" value="0.261"/>
            <param key="device.toc.mrmDecel" value="3.000"/>
            <param key="device.toc.useColorScheme" value="true"/>
            <param key="device.toc.dynamicToCThreshold" value="10.000"/>
        </vType>
        <vType accel="1.104" actionStepLength="0.100" carFollowModel="ACC" color="green" decel="2.987" emergencyDecel="9.000" id="vehCVToCOS16" lcAssertive="0.503" tau="1.833">
            <param key="has.toc.device" value="true"/>
            <param key="device.toc.manualType" value="vehLVOS"/>
            <param key="device.toc.automatedType" value="vehCVToCOS"/>
            <param key="device.toc.responseTime" value="0.000"/>
            <param key="device.toc.initialAwareness" value="0.587"/>
            <param key="device.toc.recoveryRate" value="0.373"/>
            <param key="device.toc.mrmDecel" value="3.000"/>
            <param key="device.toc.useColorScheme" value="true"/>
            <param key="device.toc.dynamicToCThreshold" value="10.000"/>
        </vType>
        <vType accel="1.800" actionStepLength="0.100" carFollowModel="ACC" color="green" decel="2.424" emergencyDecel="9.000" id="vehCVToCOS17" lcAssertive="0.508" tau="1.988">
            <param key="has.toc.device" value="true"/>
            <param key="device.toc.manualType" value="vehLVOS"/>
            <param key="device.toc.automatedType" value="vehCVToCOS"/>
            <param key="device.toc.responseTime" value="0.000"/>
            <param key="device.toc.initialAwareness" value="0.248"/>
            <param key="device.toc.recoveryRate" value="0.238"/>
            <param key="device.toc.mrmDecel" value="3.000"/>
            <param key="device.toc.useColorScheme" value="true"/>
            <param key="device.toc.dynamicToCThreshold" value="10.000"/>
        </vType>
        <vType accel="1.318" actionStepLength="0.100" carFollowModel="ACC" color="green" decel="3.474" emergencyDecel="9.000" id="vehCVToCOS18" lcAssertive="0.445" tau="1.931">
            <param key="has.toc.device" value="true"/>
            <param key="device.toc.manualType" value="vehLVOS"/>
            <param key="device.toc.automatedType" value="vehCVToCOS"/>
            <param key="device.toc.responseTime" value="0.000"/>
            <param key="device.toc.initialAwareness" value="0.760"/>
            <param key="device.toc.recoveryRate" value="0.139"/>
            <param key="device.toc.mrmDecel" value="3.000"/>
            <param key="device.toc.useColorScheme" value="true"/>
            <param key="device.toc.dynamicToCThreshold" value="10.000"/>
        </vType>
        <vType accel="1.303" actionStepLength="0.100" carFollowModel="ACC" color="green" decel="2.936" emergencyDecel="9.000" id="vehCVToCOS19" lcAssertive="0.522" tau="1.977">
            <param key="has.toc.device" value="true"/>
            <param key="device.toc.manualType" value="vehLVOS"/>
            <param key="device.toc.automatedType" value="vehCVToCOS"/>
            <param key="device.toc.responseTime" value="0.000"/>
            <param key="device.toc.initialAwareness" value="0.575"/>
            <param key="device.toc.recoveryRate" value="0.084"/>
            <param key="device.toc.mrmDecel" value="3.000"/>
            <param key="device.toc.useColorScheme" value="true"/>
            <param key="device.toc.dynamicToCThreshold" value="10.000"/>
        </vType>
        <vType accel="1.037" actionStepLength="0.100" carFollowModel="ACC" color="green" decel="3.140" emergencyDecel="9.000" id="vehCVToCOS20" lcAssertive="0.548" tau="1.853">
            <param key="has.toc.device" value="true"/>
            <param key="device.toc.manualType" value="vehLVOS"/>
            <param key="device.toc.automatedType" value="vehCVToCOS"/>
            <param key="device.toc.responseTime" value="0.000"/>
            <param key="device.toc.initialAwareness" value="0.400"/>
            <param key="device.toc.recoveryRate" value="0.330"/>
            <param key="device.toc.mrmDecel" value="3.000"/>
            <param key="device.toc.useColorScheme" value="true"/>
            <param key="device.toc.dynamicToCThreshold" value="10.000"/>
        </vType>
        <vType accel="1.516" actionStepLength="0.100" carFollowModel="ACC" color="green" decel="3.630" emergencyDecel="9.000" id="vehCVToCOS21" lcAssertive="0.513" tau="1.961">
            <param key="has.toc.device" value="true"/>
            <param key="device.toc.manualType" value="vehLVOS"/>
            <param key="device.toc.automatedType" value="vehCVToCOS"/>
            <param key="device.toc.responseTime" value="0.000"/>
            <param key="device.toc.initialAwareness" value="0.577"/>
            <param key="device.toc.recoveryRate" value="0.287"/>
            <param key="device.toc.mrmDecel" value="3.000"/>
            <param key="device.toc.useColorScheme" value="true"/>
            <param key="device.toc.dynamicToCThreshold" value="10.000"/>
        </vType>
        <vType accel="1.286" actionStepLength="0.100" carFollowModel="ACC" color="green" decel="3.736" emergencyDecel="9.000" id="vehCVToCOS22" lcAssertive="0.548" tau="1.969">
            <param key="has.toc.device" value="true"/>
            <param key="device.toc.manualType" value="vehLVOS"/>
            <param key="device.toc.automatedType" value="vehCVToCOS"/>
            <param key="device.toc.responseTime" value="0.000"/>
            <param key="device.toc.initialAwareness" value="0.676"/>
            <param key="device.toc.recoveryRate" value="0.292"/>
            <param key="device.toc.mrmDecel" value="3.000"/>
            <param key="device.toc.useColorScheme" value="true"/>
            <param key="device.toc.dynamicToCThreshold" value="10.000"/>
        </vType>
        <vType accel="1.974" actionStepLength="0.100" carFollowModel="ACC" color="green" decel="3.266" emergencyDecel="9.000" id="vehCVToCOS23" lcAssertive="0.509" tau="1.985">
            <param key="has.toc.device" value="true"/>
            <param key="device.toc.manualType" value="vehLVOS"/>
            <param key="device.toc.automatedType" value="vehCVToCOS"/>
            <param key="device.toc.responseTime" value="0.000"/>
            <param key="device.toc.initialAwareness" value="0.889"/>
            <param key="device.toc.recoveryRate" value="0.248"/>
            <param key="device.toc.mrmDecel" value="3.000"/>
            <param key="device.toc.useColorScheme" value="true"/>
            <param key="device.toc.dynamicToCThreshold" value="10.000"/>
        </vType>
        <vType accel="0.901" actionStepLength="0.100" carFollowModel="ACC" color="green" decel="3.259" emergencyDecel="9.000" id="vehCVToCOS24" lcAssertive="0.431" tau="1.903">
            <param key="has.toc.device" value="true"/>
            <param key="device.toc.manualType" value="vehLVOS"/>
            <param key="device.toc.automatedType" value="vehCVToCOS"/>
            <param key="device.toc.responseTime" value="0.000"/>
            <param key="device.toc.initialAwareness" value="0.670"/>
            <param key="device.toc.recoveryRate" value="0.372"/>
            <param key="device.toc.mrmDecel" value="3.000"/>
            <param key="device.toc.useColorScheme" value="true"/>
            <param key="device.toc.dynamicToCThreshold" value="10.000"/>
        </vType>
        <vType accel="0.821" actionStepLength="0.100" carFollowModel="ACC" color="green" decel="3.081" emergencyDecel="9.000" id="vehCVToCOS25" lcAssertive="0.539" tau="1.917">
            <param key="has.toc.device" value="true"/>
            <param key="device.toc.manualType" value="vehLVOS"/>
            <param key="device.toc.automatedType" value="vehCVToCOS"/>
            <param key="device.toc.responseTime" value="0.000"/>
            <param key="device.toc.initialAwareness" value="0.672"/>
            <param key="device.toc.recoveryRate" value="0.345"/>
            <param key="device.toc.mrmDecel" value="3.000"/>
            <param key="device.toc.useColorScheme" value="true"/>
            <param key="device.toc.dynamicToCThreshold" value="10.000"/>
        </vType>
        <vType accel="0.865" actionStepLength="0.100" carFollowModel="ACC" color="green" decel="3.326" emergencyDecel="9.000" id="vehCVToCOS26" lcAssertive="0.523" tau="1.859">
            <param key="has.toc.device" value="true"/>
            <param key="device.toc.manualType" value="vehLVOS"/>
            <param key="device.toc.automatedType" value="vehCVToCOS"/>
            <param key="device.toc.responseTime" value="0.000"/>
            <param key="device.toc.initialAwareness" value="0.228"/>
            <param key="device.toc.recoveryRate" value="0.264"/>
            <param key="device.toc.mrmDecel" value="3.000"/>
            <param key="device.toc.useColorScheme" value="true"/>
            <param key="device.toc.dynamicToCThreshold" value="10.000"/>
        </vType>
        <vType accel="1.086" actionStepLength="0.100" carFollowModel="ACC" color="green" decel="2.988" emergencyDecel="9.000" id="vehCVToCOS27" lcAssertive="0.459" tau="1.944">
            <param key="has.toc.device" value="true"/>
            <param key="device.toc.manualType" value="vehLVOS"/>
            <param key="device.toc.automatedType" value="vehCVToCOS"/>
            <param key="device.toc.responseTime" value="0.000"/>
            <param key="device.toc.initialAwareness" value="0.821"/>
            <param key="device.toc.recoveryRate" value="0.185"/>
            <param key="device.toc.mrmDecel" value="3.000"/>
            <param key="device.toc.useColorScheme" value="true"/>
            <param key="device.toc.dynamicToCThreshold" value="10.000"/>
        </vType>
        <vType accel="1.109" actionStepLength="0.100" carFollowModel="ACC" color="green" decel="2.047" emergencyDecel="9.000" id="vehCVToCOS28" lcAssertive="0.489" tau="1.997">
            <param key="has.toc.device" value="true"/>
            <param key="device.toc.manualType" value="vehLVOS"/>
            <param key="device.toc.automatedType" value="vehCVToCOS"/>
            <param key="device.toc.responseTime" value="0.000"/>
            <param key="device.toc.initialAwareness" value="0.598"/>
            <param key="device.toc.recoveryRate" value="0.212"/>
            <param key="device.toc.mrmDecel" value="3.000"/>
            <param key="device.toc.useColorScheme" value="true"/>
            <param key="device.toc.dynamicToCThreshold" value="10.000"/>
        </vType>
        <vType accel="1.148" actionStepLength="0.100" carFollowModel="ACC" color="green" decel="3.246" emergencyDecel="9.000" id="vehCVToCOS29" lcAssertive="0.510" tau="1.832">
            <param key="has.toc.device" value="true"/>
            <param key="device.toc.manualType" value="vehLVOS"/>
            <param key="device.toc.automatedType" value="vehCVToCOS"/>
            <param key="device.toc.responseTime" value="0.000"/>
            <param key="device.toc.initialAwareness" value="0.678"/>
            <param key="device.toc.recoveryRate" value="0.314"/>
            <param key="device.toc.mrmDecel" value="3.000"/>
            <param key="device.toc.useColorScheme" value="true"/>
            <param key="device.toc.dynamicToCThreshold" value="10.000"/>
        </vType>
        <vType accel="1.479" actionStepLength="0.100" carFollowModel="ACC" color="green" decel="3.101" emergencyDecel="9.000" id="vehCVToCOS30" lcAssertive="0.520" tau="1.894">
            <param key="has.toc.device" value="true"/>
            <param key="device.toc.manualType" value="vehLVOS"/>
            <param key="device.toc.automatedType" value="vehCVToCOS"/>
            <param key="device.toc.responseTime" value="0.000"/>
            <param key="device.toc.initialAwareness" value="0.666"/>
            <param key="device.toc.recoveryRate" value="0.023"/>
            <param key="device.toc.mrmDecel" value="3.000"/>
            <param key="device.toc.useColorScheme" value="true"/>
            <param key="device.toc.dynamicToCThreshold" value="10.000"/>
        </vType>
        <vType accel="1.199" actionStepLength="0.100" carFollowModel="ACC" color="green" decel="3.748" emergencyDecel="9.000" id="vehCVToCOS31" lcAssertive="0.443" tau="1.820">
            <param key="has.toc.device" value="true"/>
            <param key="device.toc.manualType" value="vehLVOS"/>
            <param key="device.toc.automatedType" value="vehCVToCOS"/>
            <param key="device.toc.responseTime" value="0.000"/>
            <param key="device.toc.initialAwareness" value="0.311"/>
            <param key="device.toc.recoveryRate" value="0.255"/>
            <param key="device.toc.mrmDecel" value="3.000"/>
            <param key="device.toc.useColorScheme" value="true"/>
            <param key="device.toc.dynamicToCThreshold" value="10.000"/>
        </vType>
        <vType accel="0.858" actionStepLength="0.100" carFollowModel="ACC" color="green" decel="3.414" emergencyDecel="9.000" id="vehCVToCOS32" lcAssertive="0.416" tau="1.887">
            <param key="has.toc.device" value="true"/>
            <param key="device.toc.manualType" value="vehLVOS"/>
            <param key="device.toc.automatedType" value="vehCVToCOS"/>
            <param key="device.toc.responseTime" value="0.000"/>
            <param key="device.toc.initialAwareness" value="0.689"/>
            <param key="device.toc.recoveryRate" value="0.229"/>
            <param key="device.toc.mrmDecel" value="3.000"/>
            <param key="device.toc.useColorScheme" value="true"/>
            <param key="device.toc.dynamicToCThreshold" value="10.000"/>
        </vType>
        <vType accel="1.441" actionStepLength="0.100" carFollowModel="ACC" color="green" decel="3.284" emergencyDecel="9.000" id="vehCVToCOS33" lcAssertive="0.562" tau="1.822">
            <param key="has.toc.device" value="true"/>
            <param key="device.toc.manualType" value="vehLVOS"/>
            <param key="device.toc.automatedType" value="vehCVToCOS"/>
            <param key="device.toc.responseTime" value="0.000"/>
            <param key="device.toc.initialAwareness" value="0.809"/>
            <param key="device.toc.recoveryRate" value="0.176"/>
            <param key="device.toc.mrmDecel" value="3.000"/>
            <param key="device.toc.useColorScheme" value="true"/>
            <param key="device.toc.dynamicToCThreshold" value="10.000"/>
        </vType>
        <vType accel="1.187" actionStepLength="0.100" carFollowModel="ACC" color="green" decel="2.763" emergencyDecel="9.000" id="vehCVToCOS34" lcAssertive="0.571" tau="1.872">
            <param key="has.toc.device" value="true"/>
            <param key="device.toc.manualType" value="vehLVOS"/>
            <param key="device.toc.automatedType" value="vehCVToCOS"/>
            <param key="device.toc.responseTime" value="0.000"/>
            <param key="device.toc.initialAwareness" value="0.437"/>
            <param key="device.toc.recoveryRate" value="0.324"/>
            <param key="device.toc.mrmDecel" value="3.000"/>
            <param key="device.toc.useColorScheme" value="true"/>
            <param key="device.toc.dynamicToCThreshold" value="10.000"/>
        </vType>
        <vType accel="0.926" actionStepLength="0.100" carFollowModel="ACC" color="green" decel="2.339" emergencyDecel="9.000" id="vehCVToCOS35" lcAssertive="0.549" tau="1.898">
            <param key="has.toc.device" value="true"/>
            <param key="device.toc.manualType" value="vehLVOS"/>
            <param key="device.toc.automatedType" value="vehCVToCOS"/>
            <param key="device.toc.responseTime" value="0.000"/>
            <param key="device.toc.initialAwareness" value="0.651"/>
            <param key="device.toc.recoveryRate" value="0.197"/>
            <param key="device.toc.mrmDecel" value="3.000"/>
            <param key="device.toc.useColorScheme" value="true"/>
            <param key="device.toc.dynamicToCThreshold" value="10.000"/>
        </vType>
        <vType accel="1.097" actionStepLength="0.100" carFollowModel="ACC" color="green" decel="2.394" emergencyDecel="9.000" id="vehCVToCOS36" lcAssertive="0.578" tau="1.920">
            <param key="has.toc.device" value="true"/>
            <param key="device.toc.manualType" value="vehLVOS"/>
            <param key="device.toc.automatedType" value="vehCVToCOS"/>
            <param key="device.toc.responseTime" value="0.000"/>
            <param key="device.toc.initialAwareness" value="0.751"/>
            <param key="device.toc.recoveryRate" value="0.265"/>
            <param key="device.toc.mrmDecel" value="3.000"/>
            <param key="device.toc.useColorScheme" value="true"/>
            <param key="device.toc.dynamicToCThreshold" value="10.000"/>
        </vType>
        <vType accel="0.799" actionStepLength="0.100" carFollowModel="ACC" color="green" decel="2.482" emergencyDecel="9.000" id="vehCVToCOS37" lcAssertive="0.528" tau="1.872">
            <param key="has.toc.device" value="true"/>
            <param key="device.toc.manualType" value="vehLVOS"/>
            <param key="device.toc.automatedType" value="vehCVToCOS"/>
            <param key="device.toc.responseTime" value="0.000"/>
            <param key="device.toc.initialAwareness" value="0.501"/>
            <param key="device.toc.recoveryRate" value="0.287"/>
            <param key="device.toc.mrmDecel" value="3.000"/>
            <param key="device.toc.useColorScheme" value="true"/>
            <param key="device.toc.dynamicToCThreshold" value="10.000"/>
        </vType>